wipe ; 
model basic -ndm 2 -ndf 2
 
node   1	0	0
node   2	0.5	0
node   3	1	0
node   4	1.5	0
node   5	2	0
node   6	2.5	0
node   7	3	0
node   8	3.5	0
node   9	4	0
node   10	4.5	0
node   11	5	0
node   12	5.5	0
node   13	6	0
node   14	6.5	0
node   15	7	0
node   16	7.5	0
node   17	8	0
node   18	8.5	0
node   19	9	0
node   20	9.5	0
# ... 20 like lines cut
 
fix 1 1 1 
fix 21 1 1
 
uniaxialMaterial  Elastic 1 20    
 
element corotTruss2D 1	1	2      1   1   
element corotTruss2D 2	2	3      1   1   
element corotTruss2D 3	3	4      1   1   
element corotTruss2D 4	4	5      1   1   
element corotTruss2D 5	5	6      1   1   
element corotTruss2D 6	6	7      1   1   
element corotTruss2D 7	7	8      1   1   
element corotTruss2D 8	8	9      1   1   
element corotTruss2D 9	9	10     1   1   
element corotTruss2D 10	10	11     1   1   
element corotTruss2D 11	11	12     1   1   
element corotTruss2D 12	12	13     1   1   
element corotTruss2D 13	13	14     1   1   
element corotTruss2D 14	14	15     1   1   
element corotTruss2D 15	15	16     1   1   
element corotTruss2D 16	16	17     1   1   
element corotTruss2D 17	17	18     1   1   
element corotTruss2D 18	18	19     1   1   
element corotTruss2D 19	19	20     1   1   
element corotTruss2D 20	21	22     1   1   
# ... 57 like lines cut
                                 
 
 
 
 
 recorder Node -file displacement.out -time -nodeRange  1 40  -dof 1 2 disp
 recorder Node -file force.out -time -nodeRange 1 40  -dof 1 2 reaction


pattern Plain 100 Linear {
	sp     40     2     -6.0 
} 
 
system BandGeneral
numberer RCM
constraints Transformation
integrator LoadControl 0.001
test NormDispIncr  1.0e-8 200 2
algorithm Newton
analysis Static
analyze 1000

 